/*--------------------------------*- C++ -*----------------------------------*\
| =========                 |                                                 |
| \\      /  F ield         | OpenFOAM: The Open Source CFD Toolbox           |
|  \\    /   O peration     | Version:  v1906                                 |
|   \\  /    A nd           | Web:      www.OpenFOAM.com                      |
|    \\/     M anipulation  |                                                 |
\*---------------------------------------------------------------------------*/
FoamFile
{
    version     2.0;
    format      ascii;
    class       dictionary;
    object      blockMeshDict;
}
// * * * * * * * * * * * * * * * * * * * * * * * * * * * * * * * * * * * * * //

scale   0.001;

x0 1;
x1 1.2;
y0 0;
y1 0.5;
z0 0;
z1 0.01;

vertices
(
    ($x0 $y0 $z0) ($x1 $y0 $z0) ($x1 $y1 $z0) ($x0 $y1 $z0) // 0-3
    ($x0 $y0 $z1) ($x1 $y0 $z1) ($x1 $y1 $z1) ($x0 $y1 $z1) // 4-6
);

blocks
(
    hex (0 1 2 3 4 5 6 7) (20 50 1) simpleGrading (1 1 1)
);

edges
(
);

boundary
(
    blockFront
    {
        type patch;
        faces
        (
            (0 3 7 4)
        );
    }
    blockTop
    {
        type patch;
        faces
        (
            (3 2 6 7)
        );
    }
    blockBack
    {
        type patch;
        faces
        (
            (1 2 6 5)
        );
    }
    blockBottom
    {
        type wall;
        faces
        (
            (0 1 5 4)
        );
    }
    leftAndRight
    {
        type empty;
        faces
        (
	     (0 1 2 3)
	     (4 5 6 7)
        );
    }
);

mergePatchPairs
(
);

// ************************************************************************* //
